1

   Abaqus 2024                                  Date 23-6ÔÂ-2026   Time 23:16:48
   For use by Supplied by Team-SolidSQUAD under license from Dassault Systemes or its subsidiary.



                         The Abaqus Software is a product of:

                           Dassault Systemes SIMULIA Corp.
                           1301 Atwood Avenue, Suite 101W
                              Johnston, RI 02919, USA
 


                   The Abaqus Software is available only under license
                   from Dassault Systemes or its subsidiary and may be
                   used or reproduced only in accordance with the terms
                   of such license.
 
                          On machine tangbh 
                          you are authorized to run
                          Abaqus/Foundation until 31-Dec-2055

                          Your site id is:  


 
                    For assistance or any other information you may
                    obtain contact information for your local office
                    from the world wide web at:

                      https://www.3ds.com/products-services/simulia/services-support/

 
                * * * * * * * * * * * * * * * * * * * * * * * * * * * * * * 
                *                                                         * 
                *                   *****************                     * 
                *                   *  N O T I C E  *                     * 
                *                   *****************                     * 
                *                                                         * 
                *                                                         * 
                *                       Abaqus 2024                       * 
                *                                                         * 
                *       BUILD ID: 2023_09_21-20.55.25 RELr426 190762      * 
                *                                                         * 
                *                                                         * 
                *  Please make sure you are using                         * 
                *  release Abaqus 2024 manuals                            * 
                *  plus the notes accompanying this release.              * 
                *                                                         * 
                *                                                         * 
                *                                                         * 
                *                                                         * 
                * * * * * * * * * * * * * * * * * * * * * * * * * * * * * * 


 



     PROCESSING PART, INSTANCE, AND ASSEMBLY INFORMATION
   *******************************************************


     END PROCESSING PART, INSTANCE, AND ASSEMBLY INFORMATION
   ***********************************************************




     OPTIONS BEING PROCESSED
   ***************************


  *Heading
  *Element, type=S4R
  *Elset, elset=ASSEMBLY_TUBE-1__PICKEDSET2
  *Elset, elset=ASSEMBLY__PICKEDSET3
  *material, name=STEEL
  *density
  *elastic
  *shellsection, elset=ASSEMBLY_TUBE-1__PICKEDSET2, material=STEEL
  *shellsection, elset=ASSEMBLY_TUBE-1__PICKEDSET2, material=STEEL
  *boundary
  *boundary
  *output, field
  *output, history
  *output, field
  *output, history
  *output, field
  *output, history
  *Step, name=Step-1, nlgeom=NO, perturbation
  *frequency, eigensolver=LANCZOS, normalization=MASS, sim=YES, acousticcoupling=ON
  *output, field
  *output, history
  *Step, name=Step-1, nlgeom=NO, perturbation
  *Step, name=Step-1, nlgeom=NO, perturbation
  *frequency, eigensolver=LANCZOS, normalization=MASS, sim=YES, acousticcoupling=ON
  *frequency, eigensolver=LANCZOS, normalization=MASS, sim=YES, acousticcoupling=ON
  *output, field
  *nodeoutput
  *output, history
  *energyoutput
  *endstep
  *boundary
  *Step, name=Step-1, nlgeom=NO, perturbation
  *frequency, eigensolver=LANCZOS, normalization=MASS, sim=YES, acousticcoupling=ON
  *frequency, eigensolver=LANCZOS, normalization=MASS, sim=YES, acousticcoupling=ON
  *endstep



                            P R O B L E M   S I Z E


          NUMBER OF ELEMENTS IS                                  3900
          NUMBER OF NODES IS                                     3978
          NUMBER OF NODES DEFINED BY THE USER                    3978
          TOTAL NUMBER OF VARIABLES IN THE MODEL                23868
          (DEGREES OF FREEDOM PLUS MAX NO. OF ANY LAGRANGE MULTIPLIER
           VARIABLES. INCLUDE *PRINT,SOLVE=YES TO GET THE ACTUAL NUMBER.)



                              END OF USER INPUT PROCESSING



     JOB TIME SUMMARY
       USER TIME (SEC)      =     0.10    
       SYSTEM TIME (SEC)    =     0.10    
       TOTAL CPU TIME (SEC) =     0.20    
       WALLCLOCK TIME (SEC) =            1
1

   Abaqus 2024                                  Date 23-6ÔÂ-2026   Time 23:16:51
   For use by Supplied by Team-SolidSQUAD under license from Dassault Systemes or its subsidiary.

                                                                                               STEP    1  INCREMENT    1
                                                                                          TIME COMPLETED IN THIS STEP   0.00    


                        S T E P       1     C A L C U L A T I O N   O F   E I G E N V A L U E S

                                            F O R   N A T U R A L   F R E Q U E N C I E S



                                                                                          

     THE LANCZOS EIGENSOLVER IS USED FOR THIS ANALYSIS
     SYSTEM DATA WILL BE WRITTEN TO THE .SIM FILE

     Abaqus WILL COMPUTE UNCOUPLED
      STRUCTURAL AND ACOUSTIC MODES
     NUMBER OF EIGENVALUES                     10
     HIGHEST FREQUENCY OF INTEREST                  1.00000E+18
     MAXIMUM NUMBER OF STEPS WITHIN RUN               35
     BLOCK SIZE FOR LANCZOS PROCEDURE                  7
     THE EIGENVECTORS ARE SCALED SO THAT 
      THE GENERALIZED MASS IN EACH VECTOR IS UNITY

     THIS IS A LINEAR PERTURBATION STEP.
     ALL LOADS ARE DEFINED AS CHANGE IN LOAD TO THE REFERENCE STATE



                    TOTAL MASS OF MODEL

                      6.0632050E-02


                    LOCATION OF THE CENTER OF MASS OF THE MODEL

                     -8.5295555E-16     -3.0506125E-15       500.0000    


                    MOMENTS OF INERTIA ABOUT THE ORIGIN
                           I(XX)               I(YY)               I(ZZ)

                       22071.90           22071.90           3714.218    


                    PRODUCTS OF INERTIA ABOUT THE ORIGIN
                           I(XY)               I(XZ)               I(YZ)

                     -2.1795066E-14      6.1756156E-16      4.8179776E-15


                    MOMENTS OF INERTIA ABOUT THE CENTER OF MASS
                           I(XX)               I(YY)               I(ZZ)

                       6913.885           6913.885           3714.218    


                    PRODUCTS OF INERTIA ABOUT THE CENTER OF MASS
                           I(XY)               I(XZ)               I(YZ)

                     -2.1795066E-14     -2.5240660E-14     -8.7664468E-14
  
                   M E M O R Y   E S T I M A T E
  
 PROCESS      FLOATING PT       MINIMUM MEMORY        MEMORY TO
              OPERATIONS           REQUIRED          MINIMIZE I/O
             PER ITERATION           (MB)               (MB)
  
     1          1.29E+09               24                227
  
 NOTE:
      (1) SINCE ABAQUS DOES NOT PRE-ALLOCATE MEMORY AND ONLY ALLOCATES MEMORY AS NEEDED DURING THE ANALYSIS,
          THE MEMORY REQUIREMENT PRINTED HERE CAN ONLY BE VIEWED AS A GENERAL GUIDELINE BASED ON THE BEST
          KNOWLEDGE AVAILABLE AT THE BEGINNING OF A STEP BEFORE THE SOLUTION PROCESS HAS BEGUN.
      (2) THE ESTIMATE IS NORMALLY UPDATED AT THE BEGINNING OF EVERY STEP. IT IS THE MAXIMUM VALUE OF THE
          ESTIMATE FROM THE CURRENT STEP TO THE LAST STEP OF THE ANALYSIS, WITH UNSYMMETRIC SOLUTION TAKEN
          INTO ACCOUNT IF APPLICABLE. 
      (3) SINCE THE ESTIMATE IS BASED ON THE ACTIVE DEGREES OF FREEDOM IN THE FIRST ITERATION OF THE 
          CURRENT STEP, THE MEMORY ESTIMATE MIGHT BE SIGNIFICANTLY DIFFERENT THAN ACTUAL USAGE FOR 
          PROBLEMS WITH SUBSTANTIAL CHANGES IN ACTIVE DEGREES OF FREEDOM BETWEEN STEPS (OR EVEN WITHIN
          THE SAME STEP). EXAMPLES ARE: PROBLEMS WITH SIGNIFICANT CONTACT CHANGES, PROBLEMS WITH MODEL
          CHANGE, PROBLEMS WITH BOTH STATIC STEP AND STEADY STATE DYNAMIC PROCEDURES WHERE ACOUSTIC 
          ELEMENTS WILL ONLY BE ACTIVATED IN THE STEADY STATE DYNAMIC STEPS.
      (4) FOR MULTI-PROCESS EXECUTION, THE ESTIMATED VALUE OF FLOATING POINT OPERATIONS FOR EACH PROCESS
          IS BASED ON AN INITIAL SCHEDULING OF OPERATIONS AND MIGHT NOT REFLECT THE ACTUAL FLOATING 
          POINT OPERATIONS COMPLETED ON EACH PROCESS. OPERATIONS ARE DYNAMICALLY BALANCED DURING EXECUTION, 
          SO THE ACTUAL BALANCE OF OPERATIONS BETWEEN PROCESSES IS EXPECTED TO BE BETTER THAN THE ESTIMATE
          PRINTED HERE.
      (5) THE UPPER LIMIT OF MEMORY THAT CAN BE ALLOCATED BY ABAQUS WILL IN GENERAL DEPEND ON THE VALUE OF
          THE "MEMORY" PARAMETER AND THE AMOUNT OF PHYSICAL MEMORY AVAILABLE ON THE MACHINE. PLEASE SEE
          THE "ABAQUS ANALYSIS USER'S MANUAL" FOR MORE DETAILS. THE ACTUAL USAGE OF MEMORY AND OF DISK
          SPACE FOR SCRATCH DATA WILL DEPEND ON THIS UPPER LIMIT AS WELL AS THE MEMORY REQUIRED TO MINIMIZE
          I/O. IF THE MEMORY UPPER LIMIT IS GREATER THAN THE MEMORY REQUIRED TO MINIMIZE I/O, THEN THE ACTUAL
          MEMORY USAGE WILL BE CLOSE TO THE ESTIMATED "MEMORY TO MINIMIZE I/O" VALUE, AND THE SCRATCH DISK
          USAGE WILL BE CLOSE-TO-ZERO; OTHERWISE, THE ACTUAL MEMORY USED WILL BE CLOSE TO THE PREVIOUSLY
          MENTIONED MEMORY LIMIT, AND THE SCRATCH DISK USAGE WILL BE ROUGHLY PROPORTIONAL TO THE DIFFERENCE
          BETWEEN THE ESTIMATED "MEMORY TO MINIMIZE I/O" AND THE MEMORY UPPER LIMIT. HOWEVER ACCURATE
          ESTIMATE OF THE SCRATCH DISK SPACE IS NOT POSSIBLE.
      (6) USING "*RESTART, WRITE" CAN GENERATE A LARGE AMOUNT OF DATA WRITTEN IN THE WORK DIRECTORY.


                              E I G E N V A L U E    O U T P U T     

 MODE NO      EIGENVALUE              FREQUENCY         GENERALIZED MASS   COMPOSITE MODAL DAMPING            
                             (RAD/TIME)   (CYCLES/TIME)


       1      9.80548E+05     990.23         157.60         1.0000         0.0000    
       2      9.80548E+05     990.23         157.60         1.0000         0.0000    
       3      1.19660E+06     1093.9         174.10         1.0000         0.0000    
       4      1.19660E+06     1093.9         174.10         1.0000         0.0000    
       5      3.67841E+06     1917.9         305.25         1.0000         0.0000    
       6      3.67841E+06     1917.9         305.25         1.0000         0.0000    
       7      5.46062E+06     2336.8         371.91         1.0000         0.0000    
       8      5.46062E+06     2336.8         371.91         1.0000         0.0000    
       9      6.50679E+06     2550.8         405.98         1.0000         0.0000    
      10      6.50679E+06     2550.8         405.98         1.0000         0.0000    


          P A R T I C I P A T I O N   F A C T O R S

 MODE NO    X-COMPONENT    Y-COMPONENT    Z-COMPONENT    X-ROTATION     Y-ROTATION     Z-ROTATION 

       1      1.57768E-15   -2.02811E-15   -6.64675E-13    1.46427E-12    1.13928E-12   -1.99130E-12
       2      2.50993E-15    1.05122E-14   -5.69409E-16   -7.79143E-12    1.80161E-12    1.74929E-07
       3      6.47349E-14   -5.57923E-09    3.13660E-17    3.99904E-06    4.70081E-11    3.72421E-13
       4     -5.11924E-09   -3.32977E-14   -6.82829E-17    2.37844E-11   -3.67106E-06    8.15111E-14
       5     -2.57980E-14   -1.33312E-14    1.37687E-16    9.69981E-12   -1.88450E-11    5.88101E-07
       6      2.14265E-17   -5.02646E-15    1.96155E-11    3.61951E-12    8.74995E-14    1.25943E-11
       7     -1.79825E-06   -0.20314        2.48656E-15     147.19       -1.30297E-03   -3.44766E-13
       8      0.20314       -1.79825E-06    7.73226E-16    1.30297E-03     147.19        1.22041E-13
       9     -1.48490E-14   -5.13194E-14   -7.54168E-11    4.50616E-12   -1.32949E-12    1.58153E-12
      10     -1.89052E-14    1.18392E-14   -1.91442E-14    8.79885E-12   -1.47895E-11    3.03177E-07


                    E F F E C T I V E   M A S S

 MODE NO    X-COMPONENT    Y-COMPONENT    Z-COMPONENT    X-ROTATION     Y-ROTATION     Z-ROTATION 

       1      2.48906E-30    4.11322E-30    4.41793E-25    2.14410E-24    1.29797E-24    3.96526E-24
       2      6.29974E-30    1.10505E-28    3.24227E-31    6.07064E-23    3.24581E-24    3.06002E-14
       3      4.19061E-27    3.11278E-17    9.83824E-34    1.59923E-11    2.20976E-21    1.38697E-25
       4      2.62066E-17    1.10874E-27    4.66255E-33    5.65700E-22    1.34767E-11    6.64406E-27
       5      6.65537E-28    1.77721E-28    1.89577E-32    9.40863E-23    3.55133E-22    3.45863E-13
       6      4.59097E-34    2.52653E-29    3.84767E-22    1.31008E-23    7.65615E-27    1.58617E-22
       7      3.23371E-12    4.12650E-02    6.18300E-30     21664.        1.69772E-06    1.18864E-25
       8      4.12650E-02    3.23371E-12    5.97878E-31    1.69772E-06     21664.        1.48941E-26
       9      2.20492E-28    2.63368E-27    5.68770E-21    2.03055E-23    1.76755E-24    2.50123E-24
      10      3.57405E-28    1.40168E-28    3.66500E-28    7.74198E-23    2.18729E-22    9.19163E-14

 TOTAL        4.12650E-02    4.12650E-02    6.07291E-21     21664.         21664.        4.68380E-13


          THE ANALYSIS HAS BEEN COMPLETED



                              ANALYSIS COMPLETE



     JOB TIME SUMMARY
       USER TIME (SEC)      =     0.70    
       SYSTEM TIME (SEC)    =     0.10    
       TOTAL CPU TIME (SEC) =     0.80    
       WALLCLOCK TIME (SEC) =            2
